Circuit: * C:\Users\reinhard\HTL\_KSN\Jahrgang_5_TKHF\DigitaleModulation\Sampling_Aliasing\Simulation\ImpulseSignals\impuseIsgnals.asc

WARNING: Less than two connections to node IMPUSE_TRAIN.  This node is used by V33.
Direct Newton iteration for .op point succeeded.
