Circuit: * Y:\LindnerR\DIC\Digitale_Signalverarbeitung\simulationen\Dirac_impulsfolge\dirac_impulsefolge.asc

WARNING: Less than two connections to node SUM.  This node is used by B1.
Direct Newton iteration for .op point succeeded.

Date: Fri Jan 17 10:08:06 2020
Total elapsed time: 19.971 seconds.

tnom = 27
temp = 27
method = modified trap
totiter = 2101803
traniter = 2101800
tranpoints = 1050901
accept = 1050901
rejected = 0
matrix size = 20
fillins = 0
solver = Normal
Matrix Compiler1: 432 bytes object code size  0.6/0.4/[0.3]
Matrix Compiler2: 910 bytes object code size  0.5/0.7/[0.4]


