Circuit: * C:\Users\reinhard\HTL\_KSN\Jahrgang_5_TKHF\DigitaleModulation\Sampling_Aliasing\Simulation\ImpulseTrain\impulseTrain.asc

Limiting rise time of source v1 to 1e-010
Limiting fall time of source v1 to 1e-010
.OP point found by inspection.

Date: Fri Jul 14 10:25:32 2017
Total elapsed time: 89.575 seconds.

tnom = 27
temp = 27
method = modified trap
totiter = 40160594
traniter = 40160594
tranpoints = 20080298
accept = 20079601
rejected = 697
matrix size = 2
fillins = 0
solver = Normal
Matrix Compiler1: off  [0.0]/0.1/0.1
Matrix Compiler2:       9 opcodes  0.1/[0.0]/0.1


