Circuit: * C:\Users\reinhard\HTL\_TIC\_DOKUS\Digitale_Signalverarbeitung\Fourier\Simulation\FourierReiheRectangular.asc

Direct Newton iteration for .op point succeeded.

Date: Thu Jan 02 12:46:57 2020
Total elapsed time: 38.853 seconds.

tnom = 27
temp = 27
method = modified trap
totiter = 20728499
traniter = 20728496
tranpoints = 10364249
accept = 10343343
rejected = 20906
matrix size = 2
fillins = 0
solver = Normal
Matrix Compiler1: 36 bytes object code size  0.1/0.1/[0.1]
Matrix Compiler2: off  [0.1]/0.1/0.1


