Circuit: * C:\Users\reinhard\HTL\_KSN\Jahrgang_5_TKHF\DigitaleModulation\Sampling_Aliasing\Simulation\PSK\PLL.asc

WARNING: Less than two connections to node A1.  This node is used by B4.
.OP point found by inspection.
